/*--------------------------------*- C++ -*----------------------------------*\
  =========                 |
  \\      /  F ield         | OpenFOAM: The Open Source CFD Toolbox
   \\    /   O peration     | Website:  https://openfoam.org
    \\  /    A nd           | Version:  8
     \\/     M anipulation  |
\*---------------------------------------------------------------------------*/
FoamFile
{
    version     2.0;
    format      ascii;
    class       dictionary;
    object      surfaceFeaturesDict;
}
// * * * * * * * * * * * * * * * * * * * * * * * * * * * * * * * * * * * * * //

surface1
{
    surfaces
    (
        "surface1.stl"
    );

    // Identify a feature when angle between faces < includedAngle
    includedAngle   120;

    // Do not mark region edges
    geometricTestOnly       yes;
    
    // Write options

    // Introduced for blueCFD-Kernel, to export extended feature edges for
    // solids within "surface1.solidName.extendedFeatureEdge"
    extractByPatch  yes;

    // Write features to obj format for postprocessing
    writeObj                yes;
    verboseObj              no;
}


// ************************************************************************* //
