/*--------------------------------*- C++ -*----------------------------------*\
| =========                 |                                                 |
| \\      /  F ield         | OpenFOAM: The Open Source CFD Toolbox           |
|  \\    /   O peration     | Version:  2.2.2                                 |
|   \\  /    A nd           | Web:      www.OpenFOAM.org                      |
|    \\/     M anipulation  |                                                 |
\*---------------------------------------------------------------------------*/
FoamFile
{
    version     2.0;
    format      ascii;
    class       dictionary;
    object      sampleDict;
}
// * * * * * * * * * * * * * * * * * * * * * * * * * * * * * * * * * * * * //

/* 
    This dictionary sets the number of segments to discretize a sphere.
    Select even numbers greater or equal than 6.
*/

// Number of segments must be greater or equal than 6 and an even number.
numberOfSegments 8;

//Temperature field name
T TempExtra;

// *********************************************************************** //
