/*--------------------------------*- C++ -*----------------------------------*\
| Template file for blueCFD-Kernel: http://www.bluecape.com.pt/blueCFDKernel           |
\*---------------------------------------------------------------------------*/
FoamFile
{
    version     2.0;
    format      ascii;
    class       dictionary;
    location    "constant";
    object      transportProperties;
}
// * * * * * * * * * * * * * * * * * * * * * * * * * * * * * * * * * * * * * //


transportModel Newtonian;

nu           nu  [ 0 2 -1 0 0 0 0 ] 1.566525e-005;
mu           mu  [ 1 -1 -1 0 0 0 0 ] 1.855000e-005;
rho          rho [ 1 -3 0 0 0 0 0 ] 1.184150e+000;
PRef         PRef [1 -1 -2 0 0 0 0] 101325;
TRef         TRef [0 0 0 1 0 0 0] 293.15;
RAir         RAir [0 2 -2 -1 0 0 0] 287.058;
RWaterVapour RWaterVapour [0 2 -2 -1 0 0 0] 461.5;
Dmol         Dmol [ 0 2 -1 0 0 0 0 ] 2.82e-5;
Sct          Sct [ 0 0 0 0 0 0 0 ] 0.9;
beta         beta [0 0 0 -1 0 0 0] 3.430000e-003;
Pr           Pr [0 0 0 0 0 0 0] 9.000000e-001;
Prt          Prt [0 0 0 0 0 0 0] 7.000000e-001;
Cp0          Cp0 [0 2 -2 -1 0 0 0] 1.007000e+003;

