FoamFile
{
    version     2.0;
    format      ascii;
    class       dictionary;
    object      controlDict;
}
// * * * * * * * * * * * * * * * * * * * * * * * * * * * * * * * * * * * * * //

//ommitted other keywods

functions
{
    savedTime
    {
        // Type of functionObject
        type            monitorSavedTimeBCFDK;

        // Where to load it from (if not already in solver)
        functionObjectLibs ("libMonitorsBCFDK.so");

        // Function object enabled flag
        enabled         true;
    }
}

// ************************************************************************* //
